*THE TRANSISTOR MODELS ARE IN THE FILE NAMED BELOW
.INCLUDE MOSFET_MODELS.TXT

*
*CIRCUIT DESCRIPTION
*
*VOLTAGE SOURCES
V1 1 0 DC -10
V2 2 0 DC 0

*TRANSISTORS
M1 7 2 0 0 PMOS49 L=20U W=60U
M2 1 1 7 0 PMOS49 L=60U W=20U

*REQUESTED ANALYSIS
.OP
.DC V2 0 -10 -0.1
.PLOT DC V(7)
*
.END
