.SUBCKT LV1UPMOS D G S B
*     TERMINALS:  D G S B

M1 D G S B PMOS W=30E-7 L=10E-7 PD=25E-7 PS=25E-7

.MODEL PMOS PMOS (
+ LEVEL   = 8
+ VERSION = 3.3.0
+ TNOM    = 27
+ U0      = 439.9319659030368
+ TOX     = 40E-9
+ XT      = 2E-6
+ XJ      = 100E-9
+ NCH     = 1.7E17
+ NSUB    = 1.7E17
+ VTH0    = -0.7
+ W0      = 1.280703E-8
+ NLX     = 0
+ Lmin    = 5E-7
+ Lmax    = 15E-7
+ Wmin    = 25E-7
+ Wmax    = 35E-7
+ )

* PGATE has to be measured!

.ENDS LV1UPMOS
